! DKH2 DKH-def2-TZVP RI-NEVPT2 autoaux pal8

%maxcore 4000

%casscf
  nel 3
  norb 5
  mult 2
  nroots 2
  rel
    dosoc true
    gtensor true
  end
end

%basis
  NewGTO Mo "SARC-DKH-TZVP" end
end

* xyz 0 2
Mo 0.000000 0.000000 0.000000
N 0.000000 -0.000000 2.216533
N -0.285171 0.004718 -2.279534
N 2.004311 0.474895 0.316334
N -0.518640 -1.927117 0.328953
N -1.436837 1.399372 0.350965
C 2.970024 0.928749 -0.594152
C -0.581237 -2.365423 1.743326
C -0.830393 -1.164002 2.652054
C -0.582721 1.300275 2.658544
C -1.760506 1.681705 1.765676
C -2.297164 2.076237 -0.555955
C -1.863288 3.517436 -0.893714
C 2.318314 0.721784 1.731216
C 1.427336 -0.143035 2.619678
C -0.748254 -2.988987 -0.591353
C -2.225153 -3.401980 -0.777574
C 4.230037 0.039526 -0.716681
H 3.306753 1.968583 -0.362264
H -0.884911 1.257688 3.734853
H 0.214347 2.063803 2.551589
H -1.987450 2.762476 1.926932
H -2.688755 1.130205 2.070077
H 1.560266 0.116824 3.699429
H 1.702564 -1.208656 2.481159
H -1.891664 -0.853055 2.556872
H -0.634431 -1.411885 3.724765
H -1.396483 -3.106776 1.917960
H 0.368415 -2.890826 2.024018
H -1.174880 0.491053 -2.522161
H 0.462152 0.518729 -2.788176
H -0.336996 -0.936202 -2.722830
H 2.201169 1.801001 2.006636
H 3.382951 0.463776 1.952892
H 2.515735 0.996716 -1.600586
H -3.345231 2.108265 -0.176930
H -2.372707 1.512731 -1.505640
H -0.168591 -3.895865 -0.302868
H -0.343914 -2.702078 -1.579029
H -2.820366 -2.544804 -1.127277
H -2.321620 -4.218722 -1.511452
H -2.669196 -3.751571 0.166806
H -1.822879 4.142017 0.011595
H -0.857324 3.512842 -1.339810
H -2.563100 3.993966 -1.599621
H 4.935889 0.454691 -1.454255
H 4.763546 -0.040601 0.242620
H 3.947836 -0.976362 -1.030904
*
